@<TRIPOS>MOLECULE
*****
 14 14 0 0 0
SMALL
GASTEIGER

@<TRIPOS>ATOM
      1 C          -0.7129    1.1840   -0.2554 C.3     1  UNL1        0.0711
      2 O          -1.4193    0.0150    0.1863 O.3     1  UNL1       -0.3752
      3 C          -0.7372   -1.1672   -0.2582 C.3     1  UNL1        0.0711
      4 C           0.7013   -1.1825    0.2577 C.3     1  UNL1        0.0711
      5 C           0.7266    1.1682    0.2575 C.3     1  UNL1        0.0711
      6 O           1.4076   -0.0147   -0.1867 O.3     1  UNL1       -0.3752
      7 H          -0.7379    1.2118   -1.3509 H       1  UNL1        0.0583
      8 H          -1.2432    2.0629    0.1230 H       1  UNL1        0.0583
      9 H          -1.2865   -2.0360    0.1164 H       1  UNL1        0.0583
     10 H          -0.7605   -1.1909   -1.3539 H       1  UNL1        0.0583
     11 H           1.2320   -2.0628   -0.1167 H       1  UNL1        0.0583
     12 H           0.7235   -1.2064    1.3534 H       1  UNL1        0.0583
     13 H           1.2755    2.0366   -0.1187 H       1  UNL1        0.0583
     14 H           0.7519    1.1929    1.3531 H       1  UNL1        0.0583
@<TRIPOS>BOND
     1     1     2    1
     2     1     5    1
     3     1     7    1
     4     1     8    1
     5     2     3    1
     6     3     4    1
     7     3     9    1
     8     3    10    1
     9     4     6    1
    10     4    11    1
    11     4    12    1
    12     5     6    1
    13     5    13    1
    14     5    14    1
