@<TRIPOS>MOLECULE
*****
 8 7 0 0 0
SMALL
GASTEIGER

@<TRIPOS>ATOM
      1 C           1.0225    0.0791    0.0612 C.3     1  UNL1       -0.0681
      2 C           0.5184    1.5047    0.0723 C.3     1  UNL1       -0.0681
      3 H           0.6677   -0.4470   -0.8300 H       1  UNL1        0.0227
      4 H           0.6677   -0.4607    0.9442 H       1  UNL1        0.0227
      5 H           2.1163    0.0583    0.0611 H       1  UNL1        0.0227
      6 H           0.8732    2.0446   -0.8107 H       1  UNL1        0.0227
      7 H          -0.5754    1.5255    0.0725 H       1  UNL1        0.0227
      8 H           0.8732    2.0308    0.9635 H       1  UNL1        0.0227
@<TRIPOS>BOND
     1     1     2    1
     2     1     3    1
     3     1     4    1
     4     1     5    1
     5     2     6    1
     6     2     7    1
     7     2     8    1
